34

N 0.000000 0.000000 0.000000
H -0.750000 -0.401425 1.235459
H -0.750000 1.050944 -0.763555
H 1.299038 0.750000 0.000000
C -0.871339 -0.987786 -0.717668
H -0.166819 -2.185337 -0.152403
C -1.493061 0.116592 0.084709
O -2.241756 -0.534446 1.318935
C -0.925797 -0.948398 -2.216162
H 0.363757 -0.345079 -2.688451
H -2.246921 -0.683227 -2.875189
H -0.960204 -2.362226 -2.716066
N -1.748335 1.590827 0.191789
C -3.068746 2.058496 0.728261
H -0.702109 2.579524 -0.229979
H -3.673860 3.096519 -0.169706
C -2.406053 2.454100 2.014471
O -3.239732 2.789579 3.215484
C -4.306907 1.214318 0.793990
H -4.109680 -0.082492 0.066401
H -5.599326 1.545794 0.108588
H -4.651600 0.460477 2.044154
N -0.839704 2.271173 2.464679
C -1.079440 1.319858 3.599371
H 0.130486 3.412653 2.540530
H -2.402203 0.624388 3.728283
C -0.378173 -0.005305 3.645908
O 0.187163 -0.599195 2.389847
C -0.338116 1.755327 4.828520
H 0.949407 0.999385 4.972874
H -1.096755 2.184535 6.049276
H -0.373699 3.203198 5.218906
O -0.172612 -0.839647 4.875387
H 1.131759 -0.538546 5.552112
