34

N 0.000000 0.000000 0.000000
H -0.871339 0.377301 1.161212
H -0.750000 -0.401425 -1.235459
H 0.750000 1.299038 0.000000
C 0.750000 -1.050944 0.763555
H 0.661683 -2.379557 0.072913
C -0.083776 -0.764286 1.977081
O -1.633760 1.668884 1.138269
C 2.241756 -1.089229 0.915862
H 2.825457 -1.669040 2.170099
H 3.046691 0.085360 0.444246
H 2.934140 -2.065735 0.011958
N 0.317906 -1.319691 3.311313
C -0.157228 -0.676644 4.580461
H 1.201983 -2.528183 3.400512
H -0.898804 -1.930493 4.938132
C -0.780738 0.348940 3.680787
O 0.084029 1.187438 2.786863
C 1.221261 -0.425716 5.116001
H 2.090041 -1.636635 4.946014
H 0.746790 0.101540 6.437697
H 1.831117 0.932556 4.933866
N -2.354222 2.210317 1.913464
C -3.050387 1.270884 2.853049
H -3.097039 3.376369 1.331617
H -3.469129 1.621011 4.250213
C -2.135854 0.158458 3.272738
O -1.070377 -0.440179 2.403030
C -4.118194 1.035241 1.826277
H -4.707074 -0.151457 2.529818
H -3.534266 1.001292 0.445018
H -5.464708 1.665227 2.026320
O -2.128079 -0.467301 4.635956
H -2.905369 0.365719 5.611610
