34

N 0.000000 0.000000 0.000000
H -0.750000 -0.401425 1.235459
H 0.871339 0.987786 0.717668
H 1.500000 0.000000 0.000000
C -1.299038 -0.750000 0.000000
H -1.082734 -2.051701 0.713292
C -2.382655 -1.344038 0.850231
O -2.172015 0.073717 1.281438
C -1.674038 -0.100481 -1.299038
H -2.423186 -0.819638 -2.381439
H -2.439541 1.012694 -0.647236
H -0.510464 0.242532 -2.181330
N -3.495655 -2.220240 0.356772
C -3.464394 -2.493890 -1.117724
H -4.582764 -2.809286 1.206018
H -4.909043 -2.146609 -1.323604
C -2.019746 -2.841170 -0.911844
O -1.034912 -2.644344 -2.026008
C -3.288459 -3.974074 -0.950090
H -2.077330 -4.456453 -1.692031
H -4.702522 -4.309878 -1.321116
H -2.732331 -4.537455 0.324008
N -1.469023 -3.414761 0.468857
C -0.008188 -3.240176 0.761229
H -1.544715 -4.503931 1.497439
H 1.276293 -3.796974 1.299824
C -0.466393 -2.650570 2.062157
O -0.191823 -1.208407 2.370015
C 0.849026 -2.525594 -0.241047
H 1.625793 -1.467047 0.484288
H 2.132210 -3.171958 -0.671922
H -0.075471 -1.821821 -1.189735
O -1.205964 -3.386481 3.139872
H -0.905025 -4.855081 3.088396
