34

N 0.000000 0.000000 0.000000
H 1.299038 -0.606763 -0.440839
H -0.750000 -0.401425 -1.235459
H 0.750000 1.299038 0.000000
C -0.000000 -0.881678 1.213525
H 0.402086 0.287436 2.062937
C 1.257937 -1.462122 0.638478
O 1.317156 -1.615816 -1.550561
C -1.251497 -1.040804 2.024965
H -1.454025 0.217349 2.816188
H -2.426203 -1.795433 1.476694
H -1.180355 -1.830217 3.298451
N 2.710477 -1.809465 0.778048
C 2.511708 -3.275593 0.531150
H 3.466620 -0.693814 1.436509
H 2.527111 -3.975333 1.857848
C 1.699463 -2.959875 -0.689743
O 0.250477 -2.596797 -0.553315
C 3.706296 -3.759335 -0.236283
H 4.896507 -2.882472 0.017706
H 3.894937 -5.226727 -0.483618
H 3.826249 -3.495837 -1.708078
N 2.315239 -1.572268 -1.729502
C 3.808980 -1.468974 -1.639680
H 1.669992 -2.021833 -3.006823
H 3.108447 -2.686776 -1.114124
C 3.675597 -0.149386 -0.939040
O 2.423137 0.376813 -0.303070
C 5.154245 -1.481872 -2.303078
H 6.310842 -1.635965 -1.360455
H 4.950732 -0.162822 -2.987687
H 4.812703 -2.618934 -3.219833
O 4.859013 0.766115 -0.832333
H 5.897019 0.193993 0.087024
