34

N 0.000000 0.000000 0.000000
H -0.000000 -0.881678 1.213525
H 0.750000 1.299038 0.000000
H 0.750000 -1.050944 -0.763555
C -1.500000 0.000000 0.000000
H -1.940839 -0.272674 -1.407590
C -1.963525 -1.154131 0.838525
O -0.717668 -2.192973 1.337847
C -1.500000 1.370318 0.610105
H -0.880246 1.712194 1.932612
H -2.754116 2.055677 0.154608
H -0.742382 2.007783 -0.516684
N -2.427051 -2.308263 1.677051
C -2.318276 -2.399488 3.170318
H -3.041828 -3.434195 0.899668
H -1.170607 -1.433957 3.145702
C -2.060986 -3.873248 3.061543
O -1.448347 -4.614608 4.212655
C -3.424110 -1.894026 4.048748
H -4.389660 -1.055648 3.264634
H -3.955679 -2.789174 5.128631
H -2.506709 -1.365082 5.111101
N -0.764138 -2.796389 2.642220
C -0.006222 -2.102527 3.734977
H -0.672953 -3.707843 1.454391
H -0.734264 -1.373273 4.824997
C 1.308372 -1.671956 3.154931
O 0.763555 -0.472285 2.438018
C 0.586506 -2.931703 4.835496
H 0.862130 -4.389017 4.611292
H 1.600958 -2.331772 5.763381
H -0.129705 -3.370468 6.078286
O 2.783962 -1.880914 2.984725
H 3.458875 -2.039872 4.314847
