80

O 0.000000 0.000000 0.000000
C -0.000000 -0.000000 1.500000
H 1.235459 0.661258 2.035144
H -1.294367 0.110061 2.250000
C -0.320576 -0.692999 2.791117
C -1.747178 -0.983249 3.152450
H -2.751572 0.130038 3.194682
C -2.032584 -2.425947 3.447690
H -1.680940 -3.369455 2.335872
C -1.894832 -2.742921 4.907331
H -3.065053 -3.290100 5.669681
C 0.173705 0.246153 5.162547
H 0.528223 0.575147 6.582434
C 0.661722 -0.314740 3.859766
H 2.097818 -0.548624 3.495173
C -0.000000 -1.426585 -0.463525
O 1.111154 -1.772837 -1.409806
N -0.993846 -2.474448 -0.058245
H -0.594674 -3.877766 -0.406612
C -2.296636 -2.216445 0.639016
H -2.327479 -1.234764 1.772749
C -2.995621 -1.752390 -0.604396
H -4.430971 -1.321342 -0.541409
H -3.694606 -1.288334 -1.847807
H -2.041348 -1.050237 -1.524365
C -3.101684 -3.477007 0.752512
O -3.246062 -4.240156 -0.530749
N -3.738645 -3.993997 2.008299
H -1.457071 -5.013988 0.011246
C -0.667028 -5.885148 -0.887477
H -0.414779 -5.842739 0.590553
C -1.611640 -6.322375 -1.967542
H -1.403249 -7.624009 -2.683307
H -1.173192 -5.167542 -2.818497
H -2.765799 -6.162297 -1.022929
C 0.492117 -5.671857 -1.815318
O 0.521436 -6.415214 -3.117839
N 1.601885 -4.732191 -1.447291
H 1.356519 -3.252514 -1.428548
C 2.998698 -5.135503 -1.078167
H 3.632106 -4.519869 0.134182
C 3.427735 -4.042051 -2.011060
H 3.856773 -2.948599 -2.943954
H 3.143265 -3.023145 -0.947619
H 3.876892 -5.446121 -2.288275
C 3.240258 -5.967734 0.146186
O 2.895568 -7.405398 -0.107408
N 4.359791 -5.618608 1.081471
H 4.100160 -6.164497 2.454278
C 5.765174 -5.522229 0.566098
H 6.684341 -4.974691 1.617447
C 6.272269 -6.530020 -0.422443
H 7.713496 -6.221432 -0.701077
H 5.378772 -7.049954 -1.509333
H 5.861598 -5.630376 -1.550268
C 3.751298 -8.362286 -3.605456
O 4.417185 -7.783560 -4.818580
N 2.506957 -8.643880 -2.816583
H 1.514197 -7.529547 -2.967211
C 2.304464 -9.851698 -1.950458
H 3.753803 -10.205817 -2.105436
C 1.294643 -10.381272 -2.925041
H 0.661509 -9.263795 -3.699886
H 1.506772 -11.717259 -3.573223
H 0.447984 -11.552580 -2.523533
C 3.630992 -7.624425 -2.452870
O 3.637145 -7.176825 2.161696
N 2.639798 -6.796824 -1.689580
H 1.580600 -7.907862 -0.625469
C 1.266376 -7.334435 -1.416290
H 0.882174 -8.780331 -1.524796
C -0.101183 -7.712596 -1.902886
H -0.039971 -8.927708 -2.780244
H -1.299176 -7.476101 -1.031747
H -1.073587 -6.622792 -2.244584
C 0.650434 -6.457398 -0.366804
O -0.195502 -5.281084 -0.754979
N 0.869295 -6.740822 1.089826
H 2.253220 -6.958824 1.625761
H -0.320783 -6.802306 2.000834
