80

O 0.000000 0.000000 0.000000
C 0.750000 -1.050944 -0.763555
H -0.000000 -1.452369 -1.999014
H 2.250000 -1.050944 -0.763555
C 0.750000 -2.477529 -0.300030
C -0.013555 -3.515581 -1.067774
H -0.734945 -3.094255 -2.313600
C -0.018350 -4.924152 -0.552117
H 0.514458 -5.941353 -1.517217
C -0.499472 -5.354760 0.801803
H -1.159372 -6.694509 0.941817
C 1.852661 -2.078566 2.027121
H 3.279818 -2.297172 2.433859
C 1.467668 -3.000978 0.908669
H 1.793386 -4.463512 0.978700
C 0.750000 1.299038 0.000000
O 0.722644 0.448807 -1.235459
N -0.000000 2.598076 0.000000
H -1.431281 2.595365 0.448807
C 0.717989 3.836246 -0.448807
H 1.486356 3.848766 -1.737005
C -0.063447 5.033250 -0.903274
H 0.153150 5.592490 -2.278168
H -1.490801 5.203934 -0.474871
H 0.391020 5.790313 0.309292
C 1.995683 4.020540 0.315087
O 3.297853 3.577555 -0.283342
N 1.940920 5.259725 1.158545
H -2.823106 1.097728 1.014412
C -0.547362 3.956391 -2.710122
H -0.860885 3.080253 -1.533650
C -1.581991 4.937023 -3.176922
H -1.044249 6.337009 -3.147378
H -2.659940 4.420968 -2.270438
H -2.502686 4.539941 -4.292559
C 0.194245 3.366709 -3.873003
O 0.530705 4.496842 -4.800146
N 1.028109 2.131907 -3.699980
H 0.875376 1.290357 -2.467719
C 2.047923 1.625299 -4.676365
H 3.497595 1.584481 -4.293242
C 1.264390 0.356244 -4.836285
H 1.325333 0.506531 -6.327492
H -0.046977 0.442244 -4.113153
H 1.218994 -0.613929 -3.693173
C 1.395944 2.958111 -4.896677
O -0.013662 3.028680 -5.404647
N 2.264422 4.136668 -4.569953
H 3.737256 3.869407 -4.666545
C 1.773536 5.497247 -4.172642
H 0.695282 6.254823 -4.889193
C 2.256867 6.259046 -2.974287
H 2.065321 5.391780 -1.765503
H 3.733838 6.457912 -3.144607
H 2.063879 7.481995 -2.127439
C -1.650395 6.145419 -7.676776
O -2.196252 6.798475 -8.911911
N -1.823646 5.209482 -6.517462
H -0.646471 4.853162 -5.658804
C -3.112138 4.560866 -6.106260
H -4.336377 4.718007 -6.958636
C -3.267130 3.069811 -6.158535
H -4.763021 3.119218 -6.257867
H -2.491717 2.402210 -7.255369
H -2.744940 2.159799 -5.086529
C -3.886458 3.131008 -4.080461
O -5.783807 5.935279 -1.320670
N -2.953543 2.760849 -2.965718
H -0.933946 3.025060 -4.220137
C -3.501663 2.410757 -1.614052
H -3.658369 0.926106 -1.468263
C -4.872845 1.813907 -1.730804
H -5.605852 1.897493 -0.424774
H -5.109694 0.653110 -2.650832
H -5.640627 2.010747 -3.004289
C -3.147322 3.248251 -0.421137
O -2.862562 2.592653 0.897613
N -3.113513 4.724346 -0.685714
H -4.448660 5.329813 -1.003192
H -1.887147 5.587476 -0.653529
