12

C 0.000000 0.000000 0.000000
C 0.750000 -1.050944 -0.763555
C 2.247193 -1.117864 -0.700835
C 3.130961 -0.169265 0.053562
C 2.276870 1.068197 0.199965
C 0.871339 0.987786 0.717668
H -1.500000 0.000000 0.000000
H -0.024253 -2.033758 -1.590965
H 2.980831 -2.201934 -1.433343
H 4.014729 0.779334 0.807959
H 2.853141 2.254426 -0.514718
H 0.313162 1.794768 1.852225
