12

C 0.000000 0.000000 0.000000
C 0.750000 0.401425 -1.235459
C 0.722644 1.839152 -1.662299
C 1.171451 2.134080 -0.261731
C 1.612359 0.919922 1.026666
C 0.871339 -0.377301 1.161212
H -1.500000 0.000000 0.000000
H 1.513555 -0.616480 -2.029721
H -0.027356 2.240577 -2.897758
H 0.871709 3.459734 0.372931
H 2.823252 1.183122 1.871925
H 0.093145 -1.347951 1.999217
