12

C 0.000000 0.000000 0.000000
C 0.871339 -1.220971 0.000000
C 1.989421 -1.361109 -0.990077
C 2.625365 -0.147458 -1.600509
C 1.856074 1.542124 -0.983621
C 0.750000 1.299038 0.000000
H -1.500000 0.000000 0.000000
H 0.604386 -2.299270 1.007972
H 2.460066 -2.736833 -1.358689
H 3.971632 -0.134703 -2.261872
H 2.078724 2.918487 -1.536840
H 0.407482 2.378469 0.983621
