12

C 0.000000 0.000000 0.000000
C -1.500000 0.000000 0.000000
C -2.263555 1.069939 0.722644
C -1.553518 2.346578 1.063290
C -0.187163 2.458041 0.168635
C 0.750000 1.299038 0.000000
H -0.000000 -1.426585 -0.463525
H -2.222644 -1.089277 -0.735705
H -3.621652 0.564166 0.335646
H -1.918376 3.274204 2.184177
H 0.091006 3.727270 -0.580818
H 2.241756 1.419535 -0.100715
