12

C 0.000000 0.000000 0.000000
C -0.000000 -0.881678 1.213525
C -0.927313 -0.346293 2.263980
C -0.602175 1.107480 2.439556
C 0.826638 1.872722 1.383840
C 0.750000 1.299038 0.000000
H -0.750000 -0.401425 -1.235459
H 0.780985 -2.156219 1.338461
H -1.797512 -1.485376 2.705845
H -1.323646 1.999923 3.405489
H 2.032064 2.660726 1.803363
H 1.384621 1.914402 -1.211851
