12

C 0.000000 0.000000 0.000000
C 0.750000 1.299038 0.000000
C 2.035144 1.423085 -0.763555
C 2.779854 0.133210 -0.585709
C 2.241756 -1.207626 -0.752902
C 0.750000 -1.050944 -0.763555
H -1.500000 0.000000 0.000000
H 0.330222 2.547532 0.717668
H 2.776381 2.709514 -0.977258
H 4.248946 -0.041471 -0.833206
H 2.980770 -2.512933 -0.747167
H -0.187163 -1.889476 -1.581229
