34
conformation = 2
N 	 1.868607 	 -1.286389 	 -1.713386 
H 	 2.170485 	 -1.828969 	 -2.516794 
H 	 1.985236 	 -1.799370 	 -0.767680 
H 	 0.825600 	 -1.291223 	 -1.744075 
C 	 2.454582 	 0.052632 	 -1.479858 
H 	 3.554201 	 -0.125362 	 -1.553924 
C 	 2.122695 	 0.167358 	 0.095765 
O 	 2.428684 	 -0.820856 	 0.793106 
C 	 1.921147 	 0.963274 	 -2.599115 
H 	 2.336751 	 2.005575 	 -2.421565 
H 	 2.275920 	 0.589589 	 -3.640571 
H 	 0.860734 	 1.079518 	 -2.552685 
N 	 1.501945 	 1.322798 	 0.500223 
C 	 0.758743 	 1.349338 	 1.651994 
H 	 1.253911 	 1.916752 	 -0.311780 
H 	 1.177979 	 0.566623 	 2.353570 
C 	 -0.809170 	 0.815427 	 1.111107 
O 	 -1.632742 	 1.483972 	 0.496254 
C 	 0.544015 	 2.712312 	 2.367774 
H 	 1.466796 	 2.942102 	 2.988755 
H 	 0.317201 	 3.483072 	 1.604557 
H 	 -0.344548 	 2.752447 	 3.047813 
N 	 -1.005768 	 -0.521198 	 1.332658 
C 	 -2.195304 	 -1.306932 	 0.881138 
H 	 -0.157585 	 -1.007250 	 1.749353 
H 	 -2.317601 	 -2.107031 	 1.566189 
C 	 -1.861553 	 -2.020192 	 -0.505015 
O 	 -0.777422 	 -1.800968 	 -1.161348 
C 	 -3.567846 	 -0.614897 	 0.843952 
H 	 -3.793217 	 -0.089313 	 -0.078984 
H 	 -4.238169 	 -1.491530 	 0.844178 
H 	 -3.860442 	 0.081952 	 1.678381 
O 	 -2.808410 	 -2.865030 	 -0.980467 
H 	 -2.498193 	 -3.287783 	 -1.866076 
