24

N 0.000000 0.000000 0.000000
H -0.000000 -0.881678 1.213525
C 0.750000 -1.050944 -0.763555
H 0.750000 1.299038 0.000000
H -0.750000 1.050944 0.763555
H 1.426181 -1.359546 0.539343
C -0.743061 -1.167536 -0.848265
C 1.395558 -1.506732 -2.038511
O -1.233963 -0.776171 -2.210560
H 1.013781 -0.212863 -2.694369
H 2.837781 -1.852673 -1.814191
H 1.632334 -2.973540 -2.244448
N -1.457405 -2.233333 -0.071225
H -2.739899 -2.896542 -0.477872
C -1.246724 -3.800217 1.403882
H -2.522289 -4.579875 1.281138
C -1.159692 -2.714694 2.435417
C 0.059412 -4.527443 1.280792
O -0.000000 -1.763356 2.427051
H 0.736575 -4.844854 -0.019478
H 0.550431 -3.276799 0.613864
H 0.836128 -5.082007 2.438017
O -1.631078 -2.971528 3.836071
H -1.175956 -1.882708 4.761995
