34

N 0.000000 0.000000 0.000000
H 1.299038 -0.606763 0.440839
H 0.750000 0.401425 -1.235459
H -1.299038 -0.750000 0.000000
C -0.000000 0.881678 1.213525
H -0.871339 -0.106108 1.931194
C 1.299038 1.113441 1.926818
O 2.242290 2.251476 1.671570
C -0.871339 2.102648 1.213525
H -0.871339 2.102648 2.713525
H -0.543829 3.380909 0.500233
H -2.138619 1.855702 0.449970
N 1.747845 0.161759 2.995871
C 2.081491 0.660087 4.370771
H 1.856975 -1.297258 2.665175
H 2.794921 -0.223332 5.350866
C 3.267671 1.577497 4.334245
O 3.255215 2.851408 5.126076
C 0.987906 0.887638 5.371917
H -0.433109 0.927878 4.893275
H 1.210580 1.883186 6.471598
H 0.754609 -0.259834 6.309403
N 4.513907 -0.306706 3.138160
C 4.865777 -0.456580 1.687738
H 4.587260 -1.482179 4.067074
H 5.971929 0.555256 1.738893
C 3.722175 -0.229950 0.743909
O 2.598076 -1.213525 0.881678
C 5.404569 -1.847098 1.849492
H 5.563891 -2.706697 0.630596
H 6.466852 -1.889673 2.907670
H 4.956280 -2.663568 3.025253
O 3.769016 0.908742 -0.231379
H 4.644011 0.574269 -1.402922
