34

N 0.000000 0.000000 0.000000
H -1.299038 0.606763 -0.440839
H 0.750000 1.299038 0.000000
H -0.000000 -0.881678 1.213525
C 0.750000 0.401425 -1.235459
H 2.035144 1.089277 -0.881531
C -0.424991 1.074582 -1.880638
O -0.464003 2.563361 -1.701714
C 1.513555 -0.616480 -2.029721
H 2.786621 -0.994371 -1.332223
H 1.512268 -0.514610 -3.526258
H 1.067991 -2.031734 -2.250009
N -1.438810 0.259925 -2.627970
C -2.343236 0.920110 -3.626053
H -1.654103 -1.216662 -2.475197
H -3.781687 0.510649 -3.740954
C -2.736003 2.043783 -2.713313
O -2.481332 3.464796 -3.120579
C -2.084630 0.399668 -5.008898
H -3.246328 0.210250 -5.938726
H -1.376880 1.364069 -5.913895
H -1.068659 -0.688360 -5.193282
N -4.842651 1.553852 -0.796251
C -4.512984 2.470288 0.344567
H -5.913783 1.089330 -1.738002
H -5.200084 2.254215 1.660319
C -3.049680 2.270134 0.082496
O -2.598076 1.213525 -0.881678
C -5.082349 3.856956 0.399126
H -5.460491 4.334505 -0.971624
H -4.500112 4.839466 1.371583
H -5.879860 4.293859 1.592060
O -1.936441 3.052913 0.713333
H -0.696155 2.992622 -0.128129
