34

N 0.000000 0.000000 0.000000
H -0.000000 -1.426585 0.463525
H 0.750000 0.401425 -1.235459
H 0.750000 0.401425 1.235459
C -1.500000 0.000000 0.000000
H -2.263555 0.388533 1.231270
C -1.500000 -1.426585 -0.463525
O -0.388846 -1.772837 -1.409806
C -1.500000 1.114717 -1.003696
H -0.750000 2.385368 -0.733611
H -3.000000 1.114717 -1.003696
H -0.750000 0.245491 -1.969069
N -2.493846 -2.474448 -0.058245
C -3.940660 -2.113196 0.103699
H -1.907590 -3.838959 0.152502
H -4.098101 -0.648569 0.386687
C -4.069142 -3.122042 1.206297
O -5.381072 -3.299266 1.911585
C -4.951566 -2.134830 -1.004273
H -6.036175 -3.170973 -1.009820
H -5.438282 -0.847438 -1.600703
H -3.843593 -2.183840 -2.014221
N -3.077209 -4.257233 1.310344
C -1.827672 -4.368372 2.132722
H -3.866841 -4.827672 0.169694
H -1.470980 -5.672423 2.782507
C -0.594088 -3.617112 1.727903
O -0.630531 -2.787541 0.478710
C -2.632531 -4.892766 3.284770
H -3.902618 -4.111936 3.449641
H -1.488947 -4.870856 4.255201
H -3.427700 -6.157263 3.147830
O 0.653392 -3.694033 2.557287
H 1.565436 -4.772981 2.053257
