34

N 0.000000 0.000000 0.000000
H 0.750000 0.401425 1.235459
H 0.750000 0.401425 -1.235459
H -1.299038 0.606763 0.440839
C -0.750000 -1.299038 0.000000
H -1.884557 -1.472694 -0.965725
C -1.016952 -1.019146 1.449275
O -1.287640 -2.289995 2.198722
C 0.393264 -2.125513 -0.509791
H 1.670080 -1.455300 -0.096806
H 0.393021 -1.338276 -1.786606
H 0.336672 -3.443859 0.203484
N -1.060742 0.351779 2.056438
C -2.192287 1.209834 1.573379
H -0.090328 0.888904 3.066286
H -1.882001 2.015212 0.346559
C -2.355668 1.922212 2.883274
O -3.429053 1.495579 3.840262
C -3.156489 0.066168 1.462282
H -3.042650 -1.071883 2.432788
H -3.535476 -0.429612 0.098255
H -4.521810 0.552863 1.076240
N -0.912755 2.619366 2.142570
C 0.247346 3.014902 3.007276
H -2.305472 2.867835 1.643970
H -0.220552 3.449345 4.364601
C 1.527356 2.240577 2.897758
O 1.500000 0.802850 2.470917
C 1.104750 4.224280 2.778666
H 2.297175 4.214649 3.688627
H 1.244847 3.851581 1.332475
H 0.701494 5.628769 3.117481
O 2.898159 2.778206 3.183860
H 3.883261 1.661979 3.367190
