34

N 0.000000 0.000000 0.000000
H 0.750000 1.299038 0.000000
H 0.750000 -1.050944 -0.763555
H -1.299038 0.606763 -0.440839
C -0.750000 -0.401425 1.235459
H -2.035144 0.363092 1.353434
C 0.424991 -0.236056 2.153091
O 0.709237 -1.251180 3.220203
C -0.722644 -1.839152 1.662299
H 0.582019 -2.177155 2.320788
H -1.445288 -2.875454 0.853681
H -1.981430 -2.459921 2.191547
N 1.310599 0.962784 1.984325
C 0.841249 2.381686 1.856157
H 2.777580 0.651895 1.948064
H 1.821374 3.491329 1.615227
C 0.061932 2.807574 0.647321
O -1.383106 2.427815 0.514472
C 0.515705 2.961196 3.200846
H 1.911652 3.438880 3.471311
H -0.480144 4.058121 3.435455
H -0.201757 2.097176 4.195189
N 1.096141 3.466528 -1.261407
C 1.744683 3.047047 -2.547264
H 0.411222 4.797626 -1.166193
H 2.414564 4.089570 -3.392490
C 2.349492 2.642855 -1.235459
O 1.500000 2.598076 0.000000
C 1.057709 2.024560 -3.403178
H 2.025091 1.387148 -4.356004
H -0.019947 1.177963 -2.793317
H -0.061697 2.935980 -3.810909
O 3.434505 1.626884 -1.436828
H 4.504405 1.773037 -0.395697
