34

N 0.000000 0.000000 0.000000
H 0.750000 0.401425 -1.235459
H 0.750000 0.401425 1.235459
H -1.299038 0.606763 0.440839
C -0.750000 -1.299038 0.000000
H -0.722644 -2.149270 1.235459
C -2.243061 -1.154922 0.000000
O -3.205272 -2.054422 0.717668
C -0.301193 -2.539919 -0.713292
H 0.908302 -2.264557 -1.556677
H -1.659943 -2.868739 -1.257053
H 0.452658 -3.610736 0.018185
N -2.888619 -0.036782 -0.763555
C -2.480164 0.258610 -2.176322
H -3.954300 0.806176 -0.128145
H -1.259139 -0.525813 -2.555503
C -1.154327 0.959095 -2.214724
O -0.791928 1.938242 -1.137720
C -3.806002 -0.441875 -2.137919
H -4.906121 0.469334 -2.595559
H -4.521290 -0.651715 -0.836255
H -4.196815 -1.572447 -3.042946
N -0.889925 -0.189403 -3.447751
C 0.300053 -1.001681 -3.865074
H -1.731799 0.456457 -4.507992
H 0.211055 -2.497801 -3.804226
C 1.576638 -0.335982 -3.444153
O 1.500000 0.802850 -2.470917
C -0.148732 -1.157220 -5.287888
H 0.242164 -0.134938 -6.313626
H -1.503385 -1.726625 -5.589043
H 0.438868 -2.536907 -5.322405
O 2.926112 -0.753377 -3.948835
H 3.859330 -1.037200 -2.809297
